LAMMPS (2 Jun 2020)
# Minimization Parameters -------------------------

variable Etol equal 1e-25
variable Ftol equal 1e-25
variable MaxIter equal 10000
variable MaxEval equal 10000
variable Iter_heat equal 1000
variable Iter_equil equal 3000
variable Iter_cool equal 1000

# Structural variables------------------------------

variable a0 equal 3.184214101623855
variable c0 equal 5.184423575863861
# ------------------------------------------------

variable cnt equal 1
# ------------------------------------------------

variable OverLap equal 1.5921070508119275

# -----------Initializing the Simulation-----------

clear
units metal
dimension 3
boundary p p f
atom_style atomic
atom_modify map array
box tilt large
compute csym all centro/atom 12
compute eng all pe/atom
compute eatoms all reduce sum c_eng
compute MinAtomEnergy all reduce min c_eng
# ---------Creating the Atomistic Structure--------

lattice custom 3.18421410162385 a1 0.5 -0.8660254037844386 0 a2 0.5 0.8660254037844386 0 a3 0 0 1.6281642535343206 basis 0 0 0 basis 0.3333333333333333 0.6666666666666666 0.5
Lattice spacing in x,y,z = 3.18421 5.51522 5.18442
region whole prism 0.0 11.480847215460312 0.0 19.885410691112934 -79.60535254059637 79.60535254059637 -2.6645352591003757e-15 0.0 0.0 units box
create_box 2 whole
Created triclinic box = (0 0 -79.6054) to (11.4808 19.8854 79.6054) with tilt (-2.66454e-15 0 0)

read_dump ./lammps_dump/output/gb_attr_Mg_sun_S13_1_N1_0_0_1_N2_0_0_-1/rem_dump 0 x y z box yes add yes
  triclinic box = (0 0 -79.6054) to (11.4808 19.8854 79.6054) with tilt (-2.66454e-15 0 0)
  0 atoms before read
  1533 atoms in snapshot
  0 atoms purged
  0 atoms replaced
  0 atoms trimmed
  1533 atoms added
  1533 atoms after read
# -------Defining the potential functions----------

pair_style eam/alloy
pair_coeff * * ./lammps_dump/Mg.eam.fs Mg Mg
neighbor 2 bin
neigh_modify delay 10 check yes
group lower type 2
686 atoms in group lower
group upper type 1
847 atoms in group upper
delete_atoms overlap 1.59210705081193  upper lower
  update every 1 steps, delay 10 steps, check yes
Deleted 0 atoms, new total = 1533
# ---------- Run Minimization ---------------------
reset_timestep 0
thermo 10
thermo_modify lost ignore
min_style cg
minimize 1e-25 1e-25 10000 10000
  update every 1 steps, delay 0 steps, check yes
Step Temp E_pair E_mol TotEng Press
0            0   -2333.5594            0   -2333.5594   -585.04843
Loop time of 2.27496 on 2 procs for 626 steps with 1533 atoms

Minimization stats:
  Stopping criterion = energy tolerance
  Energy initial, next-to-last, final =
  Force two-norm initial, final = 0.534129 4.18848e-06
  Force max component initial, final = 0.228694 4.01559e-07
  Final line search alpha, max atom move = 1 4.01559e-07
  Iterations, force evaluations = 626 1252

# ---------- Run heat ---------------------
velocity all create 466.75 235911
fix 1 all nve
thermo 100
thermo_modify flush yes
thermo_modify lost ignore
run 1000
Step Temp E_pair E_mol TotEng Press
626       466.75   -2333.6475            0   -2241.2187     2171.937
Averages over the last 6 of 12 rows, steps 1200 to 1626:
Temp E_pair E_mol TotEng Press
228.214 -2286.39 0 -2241.2 2143.14
Loop time of 1.9257 on 2 procs for 1000 steps with 1533 atoms

unfix 1
# ---------- Run anneal ---------------------
fix 1 all nvt temp 466.75 466.75 $(100.0*dt)
fix 1 all nvt temp 466.75 466.75 0.10000000000000000555
thermo 100
thermo_modify flush yes
thermo_modify lost ignore
run 3000
Step Temp E_pair E_mol TotEng Press
1626     231.6101   -2287.0655            0   -2241.2005    1365.7611
Averages over the last 16 of 32 rows, steps 3200 to 4626:
Temp E_pair E_mol TotEng Press
467.542 -2230.92 0 -2138.33 -535.316
Loop time of 5.89138 on 2 procs for 3000 steps with 1533 atoms

unfix 1
# ---------- Run cool ---------------------
fix 1 all nvt temp  466.75 .01 .01
thermo 100
thermo_modify flush yes
thermo_modify lost ignore
run 1000
Step Temp E_pair E_mol TotEng Press
4626    471.11557   -2238.8753            0   -2145.5819    3378.5895
Averages over the last 6 of 12 rows, steps 5200 to 5626:
Temp E_pair E_mol TotEng Press
92.1116 -2314 0 -2295.76 46.3338
Loop time of 1.93041 on 2 procs for 1000 steps with 1533 atoms

unfix 1
#----------------------Run minimization 1--------------------
reset_timestep 0
thermo 100
thermo_modify lost ignore
min_style cg
minimize 1e-25 1e-25 5000 10000
Step Temp E_pair E_mol TotEng Press
0   0.24889249   -2330.6775            0   -2330.6282   -1507.3364
Loop time of 2.86671 on 2 procs for 789 steps with 1533 atoms

Minimization stats:
  Stopping criterion = energy tolerance
  Energy initial, next-to-last, final =
  Force two-norm initial, final = 4.47653 8.56473e-09
  Force max component initial, final = 0.263548 6.54255e-10
  Final line search alpha, max atom move = 1 6.54255e-10
  Iterations, force evaluations = 789 1578

#----------------------Run minimization 2--------------------
reset_timestep 0
reset_ids
thermo 100
thermo_modify lost ignore
fix 1 all box/relax x 0 y 0 xy 0 vmax .001
dump 2 all custom 1000 ./lammps_dump/output/gb_attr_Mg_sun_S13_1_N1_0_0_1_N2_0_0_-1/dump.4999 id type x y z c_csym c_eng
dump_modify 2 every 1000 sort id first yes
run 0
Step Temp E_pair E_mol TotEng Press Volume
0   0.24889249   -2333.6478            0   -2333.5985   -542.47122    36348.021
Loop time of 1.19209e-06 on 2 procs for 0 steps with 1533 atoms

undump 2
